<?xml version="1.0" encoding="UTF-8"?>

<!-- generated on 2021-09-22 14:39:19 by Eclipse SUMO netedit Version 1.9.2
<configuration xmlns:xsi="http://www.w3.org/2001/XMLSchema-instance" xsi:noNamespaceSchemaLocation="http://sumo.dlr.de/xsd/netconvertConfiguration.xsd">

    <input>
        <sumo-net-file value="D:\Project_codes%20of%20pycharm\2021.6.29\car-follow-5.24\car-lc-net.net.xml"/>
    </input>

    <output>
        <output-file value="D:\Project_codes%20of%20pycharm\2021.6.29\car-follow-5.24\car-lc-net.net.xml"/>
    </output>

    <processing>
        <geometry.min-radius.fix.railways value="false"/>
        <geometry.max-grade.fix value="false"/>
        <offset.disable-normalization value="true"/>
        <lefthand value="false"/>
    </processing>

    <junctions>
        <no-internal-links value="true"/>
        <no-turnarounds value="true"/>
        <junctions.corner-detail value="5"/>
        <junctions.limit-turn-speed value="5.5"/>
        <rectangular-lane-cut value="false"/>
    </junctions>

    <pedestrian>
        <walkingareas value="false"/>
    </pedestrian>

    <report>
        <aggregate-warnings value="5"/>
    </report>

</configuration>
-->

<net version="1.9" junctionCornerDetail="5" limitTurnSpeed="5.50" xmlns:xsi="http://www.w3.org/2001/XMLSchema-instance" xsi:noNamespaceSchemaLocation="http://sumo.dlr.de/xsd/net_file.xsd">

    <location netOffset="0.00,0.00" convBoundary="0.00,-20.00,1000000.00,0.00" origBoundary="-10000000000.00,-10000000000.00,10000000000.00,10000000000.00" projParameter="!"/>

    <edge id="gneE0" from="gneJ0" to="gneJ1" priority="-1">
        <lane id="gneE0_0" index="0" speed="33" length="100000.00" shape="0.00,-8.00 100000.00,-8.00"/>
        <lane id="gneE0_1" index="1" speed="33" length="100000.00" shape="0.00,-4.80 100000.00,-4.80"/>
        <lane id="gneE0_2" index="2" speed="33" length="100000.00" shape="0.00,-1.60 100000.00,-1.60"/>
    </edge>
    <edge id="gneE4" from="gneJ4" to="gneJ5" priority="-1" length="1000000.00">
        <lane id="gneE4_0" index="0" speed="33.00" length="1000000.00" shape="0.00,-17.60 1000000.00,-17.60"/>
    </edge>
    <edge id="gneE5" from="gneJ6" to="gneJ7" priority="-1" length="1000000.00">
        <lane id="gneE5_0" index="0" speed="33.00" length="1000000.00" shape="0.00,-21.60 1000000.00,-21.60"/>
    </edge>

    <junction id="gneJ0" type="dead_end" x="0.00" y="0.00" incLanes="" intLanes="" shape="0.00,0.00 0.00,-9.60"/>
    <junction id="gneJ1" type="dead_end" x="100000.00" y="0.00" incLanes="gneE0_0 gneE0_1 gneE0_2" intLanes="" shape="100000.00,-9.60 100000.00,0.00"/>
    <junction id="gneJ4" type="dead_end" x="0.00" y="-16.00" incLanes="" intLanes="" shape="0.00,-16.00 0.00,-19.20"/>
    <junction id="gneJ5" type="dead_end" x="1000000.00" y="-16.00" incLanes="gneE4_0" intLanes="" shape="1000000.00,-19.20 1000000.00,-16.00"/>
    <junction id="gneJ6" type="dead_end" x="0.00" y="-20.00" incLanes="" intLanes="" shape="0.00,-20.00 0.00,-23.20"/>
    <junction id="gneJ7" type="dead_end" x="1000000.00" y="-20.00" incLanes="gneE5_0" intLanes="" shape="1000000.00,-23.20 1000000.00,-20.00"/>

</net>
